-e git+http://github.com/OpenFAST/python-toolbox#egg=pyFAST
numpy
matplotlib
